# STR package for  MODFLOW-2005, generated by Flopy.
50 3 2 0 0 86400.0 53 53 
        50         1         1  # stress period 1
1 25 1 1 1 0.0 100.5 11.5600004196167 99.0 100.0 
1 25 2 1 2 0.0 99.5 11.5600004196167 98.0 99.0 
1 25 3 1 3 0.0 98.5 11.5600004196167 97.0 98.0 
1 25 4 1 4 0.0 97.5 11.5600004196167 96.0 97.0 
1 25 5 1 5 0.0 96.5 11.5600004196167 95.0 96.0 
1 25 6 1 6 0.0 95.5 11.5600004196167 94.0 95.0 
1 25 7 1 7 0.0 94.5 11.5600004196167 93.0 94.0 
1 25 8 1 8 0.0 93.5 11.5600004196167 92.0 93.0 
1 25 9 1 9 0.0 92.5 11.5600004196167 91.0 92.0 
1 25 10 1 10 0.0 91.5 11.5600004196167 90.0 91.0 
1 25 11 1 11 0.0 90.5 11.5600004196167 89.0 90.0 
1 25 12 1 12 0.0 89.5 11.5600004196167 88.0 89.0 
1 25 13 1 13 0.0 88.5 11.5600004196167 87.0 88.0 
1 25 14 1 14 0.0 87.5 11.5600004196167 86.0 87.0 
1 25 15 1 15 0.0 86.5 11.5600004196167 85.0 86.0 
1 25 16 1 16 0.0 85.5 11.5600004196167 84.0 85.0 
1 25 17 1 17 0.0 84.5 11.5600004196167 83.0 84.0 
1 25 18 1 18 0.0 83.5 11.5600004196167 82.0 83.0 
1 25 19 1 19 0.0 82.5 11.5600004196167 81.0 82.0 
1 25 20 1 20 0.0 81.5 11.5600004196167 80.0 81.0 
1 25 21 1 21 0.0 80.5 11.5600004196167 79.0 80.0 
1 25 22 1 22 0.0 79.5 11.5600004196167 78.0 79.0 
1 25 23 1 23 0.0 78.5 11.5600004196167 77.0 78.0 
1 25 24 1 24 0.0 77.5 11.5600004196167 76.0 77.0 
1 25 25 2 1 50.0 76.5 11.5600004196167 75.0 76.0 
1 25 26 3 1 -1.0 76.4000015258789 11.5600004196167 74.9000015258789 75.9000015258789 
1 25 27 3 2 0.0 76.30000305175781 11.5600004196167 74.80000305175781 75.80000305175781 
1 25 28 3 3 0.0 76.19999694824219 11.5600004196167 74.69999694824219 75.69999694824219 
1 25 29 3 4 0.0 76.0999984741211 11.5600004196167 74.5999984741211 75.5999984741211 
1 25 30 3 5 0.0 76.0 11.5600004196167 74.5 75.5 
1 25 31 3 6 0.0 75.9000015258789 11.5600004196167 74.4000015258789 75.4000015258789 
1 25 32 3 7 0.0 75.80000305175781 11.5600004196167 74.30000305175781 75.30000305175781 
1 25 33 3 8 0.0 75.69999694824219 11.5600004196167 74.19999694824219 75.19999694824219 
1 25 34 3 9 0.0 75.5999984741211 11.5600004196167 74.0999984741211 75.0999984741211 
1 25 35 3 10 0.0 75.5 11.5600004196167 74.0 75.0 
1 25 36 3 11 0.0 75.4000015258789 11.5600004196167 73.9000015258789 74.9000015258789 
1 25 37 3 12 0.0 75.30000305175781 11.5600004196167 73.80000305175781 74.80000305175781 
1 25 38 3 13 0.0 75.19999694824219 11.5600004196167 73.69999694824219 74.69999694824219 
1 25 39 3 14 0.0 75.0999984741211 11.5600004196167 73.5999984741211 74.5999984741211 
1 25 40 3 15 0.0 75.0 11.5600004196167 73.5 74.5 
1 25 41 3 16 0.0 74.9000015258789 11.5600004196167 73.4000015258789 74.4000015258789 
1 25 42 3 17 0.0 74.80000305175781 11.5600004196167 73.30000305175781 74.30000305175781 
1 25 43 3 18 0.0 74.69999694824219 11.5600004196167 73.19999694824219 74.19999694824219 
1 25 44 3 19 0.0 74.5999984741211 11.5600004196167 73.0999984741211 74.0999984741211 
1 25 45 3 20 0.0 74.5 11.5600004196167 73.0 74.0 
1 25 46 3 21 0.0 74.4000015258789 11.5600004196167 72.9000015258789 73.9000015258789 
1 25 47 3 22 0.0 74.30000305175781 11.5600004196167 72.80000305175781 73.80000305175781 
1 25 48 3 23 0.0 74.19999694824219 11.5600004196167 72.69999694824219 73.69999694824219 
1 25 49 3 24 0.0 74.0999984741211 11.5600004196167 72.5999984741211 73.5999984741211 
1 25 50 3 25 0.0 74.0 11.5600004196167 72.5 73.5 
0 0 
0 0 
1 2 
